Circuit: * C:\Users\karol\Downloads\PietrowKarol.asc

WARNING: Less than two connections to node N008.  This node is used by R8.
Direct Newton iteration for .op point succeeded.

Date: Fri Sep 13 21:50:55 2024
Total elapsed time: 0.037 seconds.

tnom = 27
temp = 27
method = modified trap
totiter = 2092
traniter = 2088
tranpoints = 1045
accept = 1045
rejected = 0
matrix size = 12
fillins = 10
solver = Normal
Matrix Compiler1: 1.04 KB object code size  0.1/0.1/[0.1]
Matrix Compiler2: 1.04 KB object code size  0.1/0.1/[0.1]


